Circuit: * C:\Users\cesar\Documents\Arduino\intermediate_projects\digital_thermometer\Simulation.asc

Ignoring empty pin current: Ix(u1:1)
Ignoring empty pin current: Ix(u1:2)

Date: Thu Jul 31 19:49:10 2025
Total elapsed time: 0.029 seconds.

tnom = 27
temp = 120.16
method = trap
totiter = 2003
traniter = 0
tranpoints = 0
accept = 0
rejected = 0
matrix size = 12
fillins = 1
solver = Normal
Matrix Compiler1:      24 opcodes  0.1/[0.0]/0.1
Matrix Compiler2: 706 bytes object code size  0.1/0.1/[0.1]

